GD_BT_AGF01I2_2022.dss
!Curva PT
!Pmpp especificado a 25 graus Celsius
New XYCurve.MyPvsT npts=4  xarray=[0  25  75  100]  yarray=[1.2 1.0 0.8  0.6] 

!Curva de eficiência
New XYCurve.MyEff npts=4  xarray=[0.1  0.2  0.4  1.0]  yarray=[0.86  0.9  0.93  0.97]  


!Curva de Temperatura
New Tshape.MyTemp npts=24 interval=1 temp=[25, 25, 25, 25, 25, 25, 25, 25, 35, 40, 45, 50, 60, 60, 55, 40, 35, 30, 25, 25, 25, 25, 25, 25]

New "LoadShape.PVIrrad_diaria" npts=24 interval=1 
~ mult = [0 0 0 0 0 0 0.1 0.2 0.3 0.5 0.8 0.9 1.0 1.0 0.99 0.9 0.7 0.4 0.1 0 0 0 0 0]

New "PVsystem.GD.CE.000.135.286" phases=3 bus1=144721802.1.2.3.4 conn=Wye kv=0.38 pf=0.92 pmpp=1.596 kva=2.0 irradiance=1.0 
~ temperature=25 %cutin=0.1 %cutout=0.1 effcurve=Myeff P-TCurve=MyPvsT Daily=PVIrrad_diaria TDaily=MyTemp 

New "PVsystem.GD.CE.000.534.328" phases=3 bus1=144721802.1.2.3.4 conn=Wye kv=0.38 pf=0.92 pmpp=5.426 kva=6.0 irradiance=1.0 
~ temperature=25 %cutin=0.1 %cutout=0.1 effcurve=Myeff P-TCurve=MyPvsT Daily=PVIrrad_diaria TDaily=MyTemp 

New "PVsystem.GD.CE.000.470.665" phases=3 bus1=289370731.1.2.3.4 conn=Wye kv=0.38 pf=0.92 pmpp=0.624 kva=1.0 irradiance=1.0 
~ temperature=25 %cutin=0.1 %cutout=0.1 effcurve=Myeff P-TCurve=MyPvsT Daily=PVIrrad_diaria TDaily=MyTemp 

New "PVsystem.GD.CE.000.180.486" phases=3 bus1=144721802.1.2.3.4 conn=Wye kv=0.38 pf=0.92 pmpp=1.09 kva=2.0 irradiance=1.0 
~ temperature=25 %cutin=0.1 %cutout=0.1 effcurve=Myeff P-TCurve=MyPvsT Daily=PVIrrad_diaria TDaily=MyTemp 

New "PVsystem.GD.CE.000.340.641" phases=3 bus1=271154270.1.2.3.4 conn=Wye kv=0.38 pf=0.92 pmpp=2.224 kva=3.0 irradiance=1.0 
~ temperature=25 %cutin=0.1 %cutout=0.1 effcurve=Myeff P-TCurve=MyPvsT Daily=PVIrrad_diaria TDaily=MyTemp 

New "PVsystem.GD.CE.000.447.588" phases=3 bus1=101736924.1.2.3.4 conn=Wye kv=0.38 pf=0.92 pmpp=1.5 kva=2.0 irradiance=1.0 
~ temperature=25 %cutin=0.1 %cutout=0.1 effcurve=Myeff P-TCurve=MyPvsT Daily=PVIrrad_diaria TDaily=MyTemp 

New "PVsystem.GD.CE.000.130.524" phases=3 bus1=217306845.1.2.3.4 conn=Wye kv=0.38 pf=0.92 pmpp=1.838 kva=2.0 irradiance=1.0 
~ temperature=25 %cutin=0.1 %cutout=0.1 effcurve=Myeff P-TCurve=MyPvsT Daily=PVIrrad_diaria TDaily=MyTemp 

New "PVsystem.GD.CE.000.138.739" phases=3 bus1=245255305.1.2.3.4 conn=Wye kv=0.38 pf=0.92 pmpp=2.968 kva=3.0 irradiance=1.0 
~ temperature=25 %cutin=0.1 %cutout=0.1 effcurve=Myeff P-TCurve=MyPvsT Daily=PVIrrad_diaria TDaily=MyTemp 

New "PVsystem.GD.CE.000.947.077" phases=3 bus1=271158552.1.2.3.4 conn=Wye kv=0.38 pf=0.92 pmpp=2.426 kva=3.0 irradiance=1.0 
~ temperature=25 %cutin=0.1 %cutout=0.1 effcurve=Myeff P-TCurve=MyPvsT Daily=PVIrrad_diaria TDaily=MyTemp 

New "PVsystem.GD.CE.000.930.178" phases=3 bus1=150016204.1.2.3.4 conn=Wye kv=0.38 pf=0.92 pmpp=3.284 kva=4.0 irradiance=1.0 
~ temperature=25 %cutin=0.1 %cutout=0.1 effcurve=Myeff P-TCurve=MyPvsT Daily=PVIrrad_diaria TDaily=MyTemp 

New "PVsystem.GD.CE.000.938.746" phases=3 bus1=155537906.1.2.3.4 conn=Wye kv=0.38 pf=0.92 pmpp=2.429 kva=3.0 irradiance=1.0 
~ temperature=25 %cutin=0.1 %cutout=0.1 effcurve=Myeff P-TCurve=MyPvsT Daily=PVIrrad_diaria TDaily=MyTemp 

New "PVsystem.GD.CE.000.111.634" phases=3 bus1=44271857TR.1.2.3.4 conn=Wye kv=0.38 pf=0.92 pmpp=60.0 kva=60.0 irradiance=1.0 
~ temperature=25 %cutin=0.1 %cutout=0.1 effcurve=Myeff P-TCurve=MyPvsT Daily=PVIrrad_diaria TDaily=MyTemp 

New "PVsystem.GD.CE.001.015.056" phases=1 bus1=283944249.3.4 conn=Wye kv=0.219 pf=0.92 pmpp=1.234 kva=2.0 irradiance=1.0 
~ temperature=25 %cutin=0.1 %cutout=0.1 effcurve=Myeff P-TCurve=MyPvsT Daily=PVIrrad_diaria TDaily=MyTemp 

New "PVsystem.GD.CE.001.359.618" phases=1 bus1=289796584.2.4 conn=Wye kv=0.219 pf=0.92 pmpp=0.785 kva=1.0 irradiance=1.0 
~ temperature=25 %cutin=0.1 %cutout=0.1 effcurve=Myeff P-TCurve=MyPvsT Daily=PVIrrad_diaria TDaily=MyTemp 

New "PVsystem.GD.CE.000.106.038" phases=1 bus1=289734800.2.4 conn=Wye kv=0.219 pf=0.92 pmpp=0.984 kva=1.0 irradiance=1.0 
~ temperature=25 %cutin=0.1 %cutout=0.1 effcurve=Myeff P-TCurve=MyPvsT Daily=PVIrrad_diaria TDaily=MyTemp 

New "PVsystem.GD.CE.001.366.169" phases=3 bus1=103932636.1.2.3.4 conn=Wye kv=0.38 pf=0.92 pmpp=1.882 kva=2.0 irradiance=1.0 
~ temperature=25 %cutin=0.1 %cutout=0.1 effcurve=Myeff P-TCurve=MyPvsT Daily=PVIrrad_diaria TDaily=MyTemp 

New "PVsystem.GD.CE.000.844.853" phases=3 bus1=101585897.1.2.3.4 conn=Wye kv=0.38 pf=0.92 pmpp=4.238 kva=5.0 irradiance=1.0 
~ temperature=25 %cutin=0.1 %cutout=0.1 effcurve=Myeff P-TCurve=MyPvsT Daily=PVIrrad_diaria TDaily=MyTemp 

New "PVsystem.GD.CE.001.010.783" phases=1 bus1=103978650.1.4 conn=Wye kv=0.219 pf=0.92 pmpp=0.676 kva=1.0 irradiance=1.0 
~ temperature=25 %cutin=0.1 %cutout=0.1 effcurve=Myeff P-TCurve=MyPvsT Daily=PVIrrad_diaria TDaily=MyTemp 

New "PVsystem.GD.CE.000.698.218" phases=1 bus1=104101906.2.4 conn=Wye kv=0.219 pf=0.92 pmpp=0.469 kva=1.0 irradiance=1.0 
~ temperature=25 %cutin=0.1 %cutout=0.1 effcurve=Myeff P-TCurve=MyPvsT Daily=PVIrrad_diaria TDaily=MyTemp 

New "PVsystem.GD.CE.000.761.810" phases=1 bus1=105136246.1.4 conn=Wye kv=0.219 pf=0.92 pmpp=1.03 kva=2.0 irradiance=1.0 
~ temperature=25 %cutin=0.1 %cutout=0.1 effcurve=Myeff P-TCurve=MyPvsT Daily=PVIrrad_diaria TDaily=MyTemp 

New "PVsystem.GD.CE.000.542.520" phases=3 bus1=105195818.1.2.3.4 conn=Wye kv=0.38 pf=0.92 pmpp=0.756 kva=1.0 irradiance=1.0 
~ temperature=25 %cutin=0.1 %cutout=0.1 effcurve=Myeff P-TCurve=MyPvsT Daily=PVIrrad_diaria TDaily=MyTemp 

New "PVsystem.GD.CE.000.132.687" phases=3 bus1=105274760.1.2.3.4 conn=Wye kv=0.38 pf=0.92 pmpp=24.737 kva=25.0 irradiance=1.0 
~ temperature=25 %cutin=0.1 %cutout=0.1 effcurve=Myeff P-TCurve=MyPvsT Daily=PVIrrad_diaria TDaily=MyTemp 

New "PVsystem.GD.CE.000.116.099" phases=1 bus1=105386100.1.4 conn=Wye kv=0.219 pf=0.92 pmpp=0.293 kva=1.0 irradiance=1.0 
~ temperature=25 %cutin=0.1 %cutout=0.1 effcurve=Myeff P-TCurve=MyPvsT Daily=PVIrrad_diaria TDaily=MyTemp 

New "PVsystem.GD.CE.001.397.182" phases=3 bus1=289773521.1.2.3.4 conn=Wye kv=0.38 pf=0.92 pmpp=2.011 kva=3.0 irradiance=1.0 
~ temperature=25 %cutin=0.1 %cutout=0.1 effcurve=Myeff P-TCurve=MyPvsT Daily=PVIrrad_diaria TDaily=MyTemp 

New "PVsystem.GD.CE.000.289.598" phases=3 bus1=105445299.1.2.3.4 conn=Wye kv=0.38 pf=0.92 pmpp=1.06 kva=2.0 irradiance=1.0 
~ temperature=25 %cutin=0.1 %cutout=0.1 effcurve=Myeff P-TCurve=MyPvsT Daily=PVIrrad_diaria TDaily=MyTemp 

New "PVsystem.GD.CE.000.938.612" phases=3 bus1=105684275.1.2.3.4 conn=Wye kv=0.38 pf=0.92 pmpp=10.357 kva=11.0 irradiance=1.0 
~ temperature=25 %cutin=0.1 %cutout=0.1 effcurve=Myeff P-TCurve=MyPvsT Daily=PVIrrad_diaria TDaily=MyTemp 

New "PVsystem.GD.CE.000.774.209" phases=1 bus1=106093844.1.4 conn=Wye kv=0.219 pf=0.92 pmpp=0.908 kva=1.0 irradiance=1.0 
~ temperature=25 %cutin=0.1 %cutout=0.1 effcurve=Myeff P-TCurve=MyPvsT Daily=PVIrrad_diaria TDaily=MyTemp 

New "PVsystem.GD.CE.000.703.414" phases=1 bus1=112811535.1.4 conn=Wye kv=0.219 pf=0.92 pmpp=1.622 kva=2.0 irradiance=1.0 
~ temperature=25 %cutin=0.1 %cutout=0.1 effcurve=Myeff P-TCurve=MyPvsT Daily=PVIrrad_diaria TDaily=MyTemp 

New "PVsystem.GD.CE.000.894.164" phases=1 bus1=113187728.1.4 conn=Wye kv=0.219 pf=0.92 pmpp=0.616 kva=1.0 irradiance=1.0 
~ temperature=25 %cutin=0.1 %cutout=0.1 effcurve=Myeff P-TCurve=MyPvsT Daily=PVIrrad_diaria TDaily=MyTemp 

New "PVsystem.GD.CE.000.270.473" phases=3 bus1=113187728.1.2.3.4 conn=Wye kv=0.38 pf=0.92 pmpp=0.999 kva=1.0 irradiance=1.0 
~ temperature=25 %cutin=0.1 %cutout=0.1 effcurve=Myeff P-TCurve=MyPvsT Daily=PVIrrad_diaria TDaily=MyTemp 

New "PVsystem.GD.CE.000.832.681" phases=1 bus1=107716437.2.4 conn=Wye kv=0.219 pf=0.92 pmpp=0.51 kva=1.0 irradiance=1.0 
~ temperature=25 %cutin=0.1 %cutout=0.1 effcurve=Myeff P-TCurve=MyPvsT Daily=PVIrrad_diaria TDaily=MyTemp 

New "PVsystem.GD.CE.000.640.636" phases=1 bus1=282686622.1.4 conn=Wye kv=0.219 pf=0.92 pmpp=0.579 kva=1.0 irradiance=1.0 
~ temperature=25 %cutin=0.1 %cutout=0.1 effcurve=Myeff P-TCurve=MyPvsT Daily=PVIrrad_diaria TDaily=MyTemp 

New "PVsystem.GD.CE.000.534.852" phases=3 bus1=105072547.1.2.3.4 conn=Wye kv=0.38 pf=0.92 pmpp=2.351 kva=3.0 irradiance=1.0 
~ temperature=25 %cutin=0.1 %cutout=0.1 effcurve=Myeff P-TCurve=MyPvsT Daily=PVIrrad_diaria TDaily=MyTemp 

New "PVsystem.GD.CE.000.879.031" phases=1 bus1=108915260.1.4 conn=Wye kv=0.219 pf=0.92 pmpp=0.736 kva=1.0 irradiance=1.0 
~ temperature=25 %cutin=0.1 %cutout=0.1 effcurve=Myeff P-TCurve=MyPvsT Daily=PVIrrad_diaria TDaily=MyTemp 

New "PVsystem.GD.CE.000.702.498" phases=1 bus1=109047088.1.4 conn=Wye kv=0.219 pf=0.92 pmpp=0.963 kva=1.0 irradiance=1.0 
~ temperature=25 %cutin=0.1 %cutout=0.1 effcurve=Myeff P-TCurve=MyPvsT Daily=PVIrrad_diaria TDaily=MyTemp 

New "PVsystem.GD.CE.001.276.082" phases=3 bus1=109057703.1.2.3.4 conn=Wye kv=0.38 pf=0.92 pmpp=0.633 kva=1.0 irradiance=1.0 
~ temperature=25 %cutin=0.1 %cutout=0.1 effcurve=Myeff P-TCurve=MyPvsT Daily=PVIrrad_diaria TDaily=MyTemp 

New "PVsystem.GD.CE.000.368.284" phases=3 bus1=116936235.1.2.3.4 conn=Wye kv=0.38 pf=0.92 pmpp=3.633 kva=4.0 irradiance=1.0 
~ temperature=25 %cutin=0.1 %cutout=0.1 effcurve=Myeff P-TCurve=MyPvsT Daily=PVIrrad_diaria TDaily=MyTemp 

New "PVsystem.GD.CE.000.340.960" phases=1 bus1=109551366.1.4 conn=Wye kv=0.219 pf=0.92 pmpp=0.389 kva=1.0 irradiance=1.0 
~ temperature=25 %cutin=0.1 %cutout=0.1 effcurve=Myeff P-TCurve=MyPvsT Daily=PVIrrad_diaria TDaily=MyTemp 

New "PVsystem.GD.CE.000.180.641" phases=1 bus1=109769545.1.4 conn=Wye kv=0.219 pf=0.92 pmpp=1.25 kva=2.0 irradiance=1.0 
~ temperature=25 %cutin=0.1 %cutout=0.1 effcurve=Myeff P-TCurve=MyPvsT Daily=PVIrrad_diaria TDaily=MyTemp 

New "PVsystem.GD.CE.001.218.640" phases=1 bus1=146615456.2.4 conn=Wye kv=0.219 pf=0.92 pmpp=0.78 kva=1.0 irradiance=1.0 
~ temperature=25 %cutin=0.1 %cutout=0.1 effcurve=Myeff P-TCurve=MyPvsT Daily=PVIrrad_diaria TDaily=MyTemp 

New "PVsystem.GD.CE.000.970.640" phases=1 bus1=146608548.2.4 conn=Wye kv=0.219 pf=0.92 pmpp=0.615 kva=1.0 irradiance=1.0 
~ temperature=25 %cutin=0.1 %cutout=0.1 effcurve=Myeff P-TCurve=MyPvsT Daily=PVIrrad_diaria TDaily=MyTemp 

New "PVsystem.GD.CE.000.547.927" phases=3 bus1=116936908.1.2.3.4 conn=Wye kv=0.38 pf=0.92 pmpp=0.795 kva=1.0 irradiance=1.0 
~ temperature=25 %cutin=0.1 %cutout=0.1 effcurve=Myeff P-TCurve=MyPvsT Daily=PVIrrad_diaria TDaily=MyTemp 

New "PVsystem.GD.CE.000.261.187" phases=1 bus1=113567740.2.4 conn=Wye kv=0.219 pf=0.92 pmpp=0.52 kva=1.0 irradiance=1.0 
~ temperature=25 %cutin=0.1 %cutout=0.1 effcurve=Myeff P-TCurve=MyPvsT Daily=PVIrrad_diaria TDaily=MyTemp 

New "PVsystem.GD.CE.000.180.757" phases=1 bus1=110621534.2.4 conn=Wye kv=0.219 pf=0.92 pmpp=0.736 kva=1.0 irradiance=1.0 
~ temperature=25 %cutin=0.1 %cutout=0.1 effcurve=Myeff P-TCurve=MyPvsT Daily=PVIrrad_diaria TDaily=MyTemp 

New "PVsystem.GD.CE.001.357.457" phases=1 bus1=113572957.3.4 conn=Wye kv=0.219 pf=0.92 pmpp=1.213 kva=2.0 irradiance=1.0 
~ temperature=25 %cutin=0.1 %cutout=0.1 effcurve=Myeff P-TCurve=MyPvsT Daily=PVIrrad_diaria TDaily=MyTemp 

New "PVsystem.GD.CE.001.460.707" phases=1 bus1=110731120.3.4 conn=Wye kv=0.219 pf=0.92 pmpp=0.478 kva=1.0 irradiance=1.0 
~ temperature=25 %cutin=0.1 %cutout=0.1 effcurve=Myeff P-TCurve=MyPvsT Daily=PVIrrad_diaria TDaily=MyTemp 

New "PVsystem.GD.CE.001.067.533" phases=1 bus1=110846410.2.4 conn=Wye kv=0.219 pf=0.92 pmpp=0.771 kva=1.0 irradiance=1.0 
~ temperature=25 %cutin=0.1 %cutout=0.1 effcurve=Myeff P-TCurve=MyPvsT Daily=PVIrrad_diaria TDaily=MyTemp 

New "PVsystem.GD.CE.000.041.098" phases=1 bus1=147367360.3.4 conn=Wye kv=0.219 pf=0.92 pmpp=2.654 kva=3.0 irradiance=1.0 
~ temperature=25 %cutin=0.1 %cutout=0.1 effcurve=Myeff P-TCurve=MyPvsT Daily=PVIrrad_diaria TDaily=MyTemp 

New "PVsystem.GD.CE.000.795.224" phases=1 bus1=111055497.2.4 conn=Wye kv=0.219 pf=0.92 pmpp=0.356 kva=1.0 irradiance=1.0 
~ temperature=25 %cutin=0.1 %cutout=0.1 effcurve=Myeff P-TCurve=MyPvsT Daily=PVIrrad_diaria TDaily=MyTemp 

New "PVsystem.GD.CE.000.341.066" phases=1 bus1=111122270.3.4 conn=Wye kv=0.219 pf=0.92 pmpp=0.377 kva=1.0 irradiance=1.0 
~ temperature=25 %cutin=0.1 %cutout=0.1 effcurve=Myeff P-TCurve=MyPvsT Daily=PVIrrad_diaria TDaily=MyTemp 

New "PVsystem.GD.CE.001.113.206" phases=1 bus1=111174268.2.4 conn=Wye kv=0.219 pf=0.92 pmpp=1.042 kva=2.0 irradiance=1.0 
~ temperature=25 %cutin=0.1 %cutout=0.1 effcurve=Myeff P-TCurve=MyPvsT Daily=PVIrrad_diaria TDaily=MyTemp 

New "PVsystem.GD.CE.000.498.393" phases=3 bus1=103514584.1.2.3.4 conn=Wye kv=0.38 pf=0.92 pmpp=0.389 kva=1.0 irradiance=1.0 
~ temperature=25 %cutin=0.1 %cutout=0.1 effcurve=Myeff P-TCurve=MyPvsT Daily=PVIrrad_diaria TDaily=MyTemp 

New "PVsystem.GD.CE.000.004.280" phases=3 bus1=111295623.1.2.3.4 conn=Wye kv=0.38 pf=0.92 pmpp=1.35 kva=2.0 irradiance=1.0 
~ temperature=25 %cutin=0.1 %cutout=0.1 effcurve=Myeff P-TCurve=MyPvsT Daily=PVIrrad_diaria TDaily=MyTemp 

New "PVsystem.GD.CE.000.616.012" phases=3 bus1=111335025.1.2.3.4 conn=Wye kv=0.38 pf=0.92 pmpp=2.758 kva=3.0 irradiance=1.0 
~ temperature=25 %cutin=0.1 %cutout=0.1 effcurve=Myeff P-TCurve=MyPvsT Daily=PVIrrad_diaria TDaily=MyTemp 

New "PVsystem.GD.CE.000.607.461" phases=3 bus1=109139154.1.2.3.4 conn=Wye kv=0.38 pf=0.92 pmpp=1.38 kva=2.0 irradiance=1.0 
~ temperature=25 %cutin=0.1 %cutout=0.1 effcurve=Myeff P-TCurve=MyPvsT Daily=PVIrrad_diaria TDaily=MyTemp 

New "PVsystem.GD.CE.000.676.046" phases=3 bus1=214688630.1.2.3.4 conn=Wye kv=0.38 pf=0.92 pmpp=1.351 kva=2.0 irradiance=1.0 
~ temperature=25 %cutin=0.1 %cutout=0.1 effcurve=Myeff P-TCurve=MyPvsT Daily=PVIrrad_diaria TDaily=MyTemp 

New "PVsystem.GD.CE.000.149.233" phases=3 bus1=111788804.1.2.3.4 conn=Wye kv=0.38 pf=0.92 pmpp=1.001 kva=2.0 irradiance=1.0 
~ temperature=25 %cutin=0.1 %cutout=0.1 effcurve=Myeff P-TCurve=MyPvsT Daily=PVIrrad_diaria TDaily=MyTemp 

New "PVsystem.GD.CE.000.940.094" phases=1 bus1=111821406.2.4 conn=Wye kv=0.219 pf=0.92 pmpp=1.132 kva=2.0 irradiance=1.0 
~ temperature=25 %cutin=0.1 %cutout=0.1 effcurve=Myeff P-TCurve=MyPvsT Daily=PVIrrad_diaria TDaily=MyTemp 

New "PVsystem.GD.CE.000.468.976" phases=1 bus1=147062258.1.4 conn=Wye kv=0.219 pf=0.92 pmpp=0.989 kva=1.0 irradiance=1.0 
~ temperature=25 %cutin=0.1 %cutout=0.1 effcurve=Myeff P-TCurve=MyPvsT Daily=PVIrrad_diaria TDaily=MyTemp 

New "PVsystem.GD.CE.000.004.492" phases=1 bus1=146282064.1.4 conn=Wye kv=0.219 pf=0.92 pmpp=1.097 kva=2.0 irradiance=1.0 
~ temperature=25 %cutin=0.1 %cutout=0.1 effcurve=Myeff P-TCurve=MyPvsT Daily=PVIrrad_diaria TDaily=MyTemp 

New "PVsystem.GD.CE.000.670.337" phases=1 bus1=146282053.1.4 conn=Wye kv=0.219 pf=0.92 pmpp=0.773 kva=1.0 irradiance=1.0 
~ temperature=25 %cutin=0.1 %cutout=0.1 effcurve=Myeff P-TCurve=MyPvsT Daily=PVIrrad_diaria TDaily=MyTemp 

New "PVsystem.GD.CE.001.514.556" phases=3 bus1=214734512.1.2.3.4 conn=Wye kv=0.38 pf=0.92 pmpp=2.236 kva=3.0 irradiance=1.0 
~ temperature=25 %cutin=0.1 %cutout=0.1 effcurve=Myeff P-TCurve=MyPvsT Daily=PVIrrad_diaria TDaily=MyTemp 

New "PVsystem.GD.CE.000.766.664" phases=1 bus1=113495134.3.4 conn=Wye kv=0.219 pf=0.92 pmpp=3.041 kva=4.0 irradiance=1.0 
~ temperature=25 %cutin=0.1 %cutout=0.1 effcurve=Myeff P-TCurve=MyPvsT Daily=PVIrrad_diaria TDaily=MyTemp 

New "PVsystem.GD.CE.000.015.125" phases=3 bus1=215040642.1.2.3.4 conn=Wye kv=0.38 pf=0.92 pmpp=1.999 kva=2.0 irradiance=1.0 
~ temperature=25 %cutin=0.1 %cutout=0.1 effcurve=Myeff P-TCurve=MyPvsT Daily=PVIrrad_diaria TDaily=MyTemp 

New "PVsystem.GD.CE.000.418.259" phases=1 bus1=146605132.1.4 conn=Wye kv=0.219 pf=0.92 pmpp=1.091 kva=2.0 irradiance=1.0 
~ temperature=25 %cutin=0.1 %cutout=0.1 effcurve=Myeff P-TCurve=MyPvsT Daily=PVIrrad_diaria TDaily=MyTemp 

New "PVsystem.GD.CE.000.672.104" phases=3 bus1=108147597.1.2.3.4 conn=Wye kv=0.38 pf=0.92 pmpp=0.422 kva=1.0 irradiance=1.0 
~ temperature=25 %cutin=0.1 %cutout=0.1 effcurve=Myeff P-TCurve=MyPvsT Daily=PVIrrad_diaria TDaily=MyTemp 

New "PVsystem.GD.CE.000.395.360" phases=3 bus1=61859115.1.2.3.4 conn=Wye kv=0.38 pf=0.92 pmpp=1.871 kva=2.0 irradiance=1.0 
~ temperature=25 %cutin=0.1 %cutout=0.1 effcurve=Myeff P-TCurve=MyPvsT Daily=PVIrrad_diaria TDaily=MyTemp 

New "PVsystem.GD.CE.000.005.961" phases=3 bus1=61859047.1.2.3.4 conn=Wye kv=0.38 pf=0.92 pmpp=1.598 kva=2.0 irradiance=1.0 
~ temperature=25 %cutin=0.1 %cutout=0.1 effcurve=Myeff P-TCurve=MyPvsT Daily=PVIrrad_diaria TDaily=MyTemp 

New "PVsystem.GD.CE.000.179.697" phases=3 bus1=281212181.1.2.3.4 conn=Wye kv=0.38 pf=0.92 pmpp=1.541 kva=2.0 irradiance=1.0 
~ temperature=25 %cutin=0.1 %cutout=0.1 effcurve=Myeff P-TCurve=MyPvsT Daily=PVIrrad_diaria TDaily=MyTemp 

New "PVsystem.GD.CE.000.853.980" phases=3 bus1=277102718.1.2.3.4 conn=Wye kv=0.38 pf=0.92 pmpp=0.794 kva=1.0 irradiance=1.0 
~ temperature=25 %cutin=0.1 %cutout=0.1 effcurve=Myeff P-TCurve=MyPvsT Daily=PVIrrad_diaria TDaily=MyTemp 

New "PVsystem.GD.CE.000.470.659" phases=1 bus1=283924061.1.4 conn=Wye kv=0.219 pf=0.92 pmpp=0.519 kva=1.0 irradiance=1.0 
~ temperature=25 %cutin=0.1 %cutout=0.1 effcurve=Myeff P-TCurve=MyPvsT Daily=PVIrrad_diaria TDaily=MyTemp 

New "PVsystem.GD.CE.000.168.297" phases=1 bus1=289772198.1.4 conn=Wye kv=0.219 pf=0.92 pmpp=1.108 kva=2.0 irradiance=1.0 
~ temperature=25 %cutin=0.1 %cutout=0.1 effcurve=Myeff P-TCurve=MyPvsT Daily=PVIrrad_diaria TDaily=MyTemp 

New "PVsystem.GD.CE.000.547.018" phases=1 bus1=85947388.2.4 conn=Wye kv=0.219 pf=0.92 pmpp=0.944 kva=1.0 irradiance=1.0 
~ temperature=25 %cutin=0.1 %cutout=0.1 effcurve=Myeff P-TCurve=MyPvsT Daily=PVIrrad_diaria TDaily=MyTemp 

New "PVsystem.GD.CE.001.010.163" phases=1 bus1=283944189.1.4 conn=Wye kv=0.219 pf=0.92 pmpp=0.974 kva=1.0 irradiance=1.0 
~ temperature=25 %cutin=0.1 %cutout=0.1 effcurve=Myeff P-TCurve=MyPvsT Daily=PVIrrad_diaria TDaily=MyTemp 

New "PVsystem.GD.CE.000.015.122" phases=3 bus1=116286554.1.2.3.4 conn=Wye kv=0.38 pf=0.92 pmpp=1.556 kva=2.0 irradiance=1.0 
~ temperature=25 %cutin=0.1 %cutout=0.1 effcurve=Myeff P-TCurve=MyPvsT Daily=PVIrrad_diaria TDaily=MyTemp 

New "PVsystem.GD.CE.000.712.768" phases=3 bus1=214623172.1.2.3.4 conn=Wye kv=0.38 pf=0.92 pmpp=0.528 kva=1.0 irradiance=1.0 
~ temperature=25 %cutin=0.1 %cutout=0.1 effcurve=Myeff P-TCurve=MyPvsT Daily=PVIrrad_diaria TDaily=MyTemp 

New "PVsystem.GD.CE.000.803.390" phases=1 bus1=117178349.2.4 conn=Wye kv=0.219 pf=0.92 pmpp=0.751 kva=1.0 irradiance=1.0 
~ temperature=25 %cutin=0.1 %cutout=0.1 effcurve=Myeff P-TCurve=MyPvsT Daily=PVIrrad_diaria TDaily=MyTemp 

New "PVsystem.GD.CE.001.276.426" phases=3 bus1=112141584.1.2.3.4 conn=Wye kv=0.38 pf=0.92 pmpp=0.371 kva=1.0 irradiance=1.0 
~ temperature=25 %cutin=0.1 %cutout=0.1 effcurve=Myeff P-TCurve=MyPvsT Daily=PVIrrad_diaria TDaily=MyTemp 

New "PVsystem.GD.CE.001.063.560" phases=1 bus1=101768876.1.4 conn=Wye kv=0.219 pf=0.92 pmpp=0.912 kva=1.0 irradiance=1.0 
~ temperature=25 %cutin=0.1 %cutout=0.1 effcurve=Myeff P-TCurve=MyPvsT Daily=PVIrrad_diaria TDaily=MyTemp 

New "PVsystem.GD.CE.000.610.431" phases=3 bus1=139070097.1.2.3.4 conn=Wye kv=0.38 pf=0.92 pmpp=3.098 kva=4.0 irradiance=1.0 
~ temperature=25 %cutin=0.1 %cutout=0.1 effcurve=Myeff P-TCurve=MyPvsT Daily=PVIrrad_diaria TDaily=MyTemp 

New "PVsystem.GD.CE.000.149.827" phases=3 bus1=115293488.1.2.3.4 conn=Wye kv=0.38 pf=0.92 pmpp=4.619 kva=5.0 irradiance=1.0 
~ temperature=25 %cutin=0.1 %cutout=0.1 effcurve=Myeff P-TCurve=MyPvsT Daily=PVIrrad_diaria TDaily=MyTemp 

New "PVsystem.GD.CE.000.589.430" phases=1 bus1=277103834.2.4 conn=Wye kv=0.219 pf=0.92 pmpp=1.049 kva=2.0 irradiance=1.0 
~ temperature=25 %cutin=0.1 %cutout=0.1 effcurve=Myeff P-TCurve=MyPvsT Daily=PVIrrad_diaria TDaily=MyTemp 

New "PVsystem.GD.CE.000.015.126" phases=3 bus1=141106808.1.2.3.4 conn=Wye kv=0.38 pf=0.92 pmpp=1.799 kva=2.0 irradiance=1.0 
~ temperature=25 %cutin=0.1 %cutout=0.1 effcurve=Myeff P-TCurve=MyPvsT Daily=PVIrrad_diaria TDaily=MyTemp 

New "PVsystem.GD.CE.000.697.219" phases=1 bus1=140149600.1.4 conn=Wye kv=0.219 pf=0.92 pmpp=0.43 kva=1.0 irradiance=1.0 
~ temperature=25 %cutin=0.1 %cutout=0.1 effcurve=Myeff P-TCurve=MyPvsT Daily=PVIrrad_diaria TDaily=MyTemp 

New "PVsystem.GD.CE.000.469.795" phases=3 bus1=145590487.1.2.3.4 conn=Wye kv=0.38 pf=0.92 pmpp=1.539 kva=2.0 irradiance=1.0 
~ temperature=25 %cutin=0.1 %cutout=0.1 effcurve=Myeff P-TCurve=MyPvsT Daily=PVIrrad_diaria TDaily=MyTemp 

New "PVsystem.GD.CE.001.359.589" phases=1 bus1=145590709.3.4 conn=Wye kv=0.219 pf=0.92 pmpp=0.789 kva=1.0 irradiance=1.0 
~ temperature=25 %cutin=0.1 %cutout=0.1 effcurve=Myeff P-TCurve=MyPvsT Daily=PVIrrad_diaria TDaily=MyTemp 

New "PVsystem.GD.CE.000.547.908" phases=3 bus1=282895029.1.2.3.4 conn=Wye kv=0.38 pf=0.92 pmpp=0.589 kva=1.0 irradiance=1.0 
~ temperature=25 %cutin=0.1 %cutout=0.1 effcurve=Myeff P-TCurve=MyPvsT Daily=PVIrrad_diaria TDaily=MyTemp 

New "PVsystem.GD.CE.001.497.122" phases=3 bus1=282686307.1.2.3.4 conn=Wye kv=0.38 pf=0.92 pmpp=0.642 kva=1.0 irradiance=1.0 
~ temperature=25 %cutin=0.1 %cutout=0.1 effcurve=Myeff P-TCurve=MyPvsT Daily=PVIrrad_diaria TDaily=MyTemp 

New "PVsystem.GD.CE.000.418.297" phases=3 bus1=282686337.1.2.3.4 conn=Wye kv=0.38 pf=0.92 pmpp=0.899 kva=1.0 irradiance=1.0 
~ temperature=25 %cutin=0.1 %cutout=0.1 effcurve=Myeff P-TCurve=MyPvsT Daily=PVIrrad_diaria TDaily=MyTemp 

New "PVsystem.GD.CE.000.607.108" phases=3 bus1=282686352.1.2.3.4 conn=Wye kv=0.38 pf=0.92 pmpp=0.78 kva=1.0 irradiance=1.0 
~ temperature=25 %cutin=0.1 %cutout=0.1 effcurve=Myeff P-TCurve=MyPvsT Daily=PVIrrad_diaria TDaily=MyTemp 

New "PVsystem.GD.CE.000.832.203" phases=3 bus1=282686382.1.2.3.4 conn=Wye kv=0.38 pf=0.92 pmpp=0.833 kva=1.0 irradiance=1.0 
~ temperature=25 %cutin=0.1 %cutout=0.1 effcurve=Myeff P-TCurve=MyPvsT Daily=PVIrrad_diaria TDaily=MyTemp 

New "PVsystem.GD.CE.001.179.991" phases=1 bus1=72701508.1.4 conn=Wye kv=0.219 pf=0.92 pmpp=0.894 kva=1.0 irradiance=1.0 
~ temperature=25 %cutin=0.1 %cutout=0.1 effcurve=Myeff P-TCurve=MyPvsT Daily=PVIrrad_diaria TDaily=MyTemp 

New "PVsystem.GD.CE.001.131.765" phases=1 bus1=121021343.1.4 conn=Wye kv=0.219 pf=0.92 pmpp=0.607 kva=1.0 irradiance=1.0 
~ temperature=25 %cutin=0.1 %cutout=0.1 effcurve=Myeff P-TCurve=MyPvsT Daily=PVIrrad_diaria TDaily=MyTemp 

New "PVsystem.GD.CE.000.009.689" phases=3 bus1=63684303.1.2.3.4 conn=Wye kv=0.38 pf=0.92 pmpp=1.219 kva=2.0 irradiance=1.0 
~ temperature=25 %cutin=0.1 %cutout=0.1 effcurve=Myeff P-TCurve=MyPvsT Daily=PVIrrad_diaria TDaily=MyTemp 

New "PVsystem.GD.CE.000.004.724" phases=3 bus1=97730009.1.2.3.4 conn=Wye kv=0.38 pf=0.92 pmpp=1.692 kva=2.0 irradiance=1.0 
~ temperature=25 %cutin=0.1 %cutout=0.1 effcurve=Myeff P-TCurve=MyPvsT Daily=PVIrrad_diaria TDaily=MyTemp 

New "PVsystem.GD.CE.000.010.905" phases=3 bus1=283937324.1.2.3.4 conn=Wye kv=0.38 pf=0.92 pmpp=1.87 kva=2.0 irradiance=1.0 
~ temperature=25 %cutin=0.1 %cutout=0.1 effcurve=Myeff P-TCurve=MyPvsT Daily=PVIrrad_diaria TDaily=MyTemp 

New "PVsystem.GD.CE.000.613.770" phases=3 bus1=282686442.1.2.3.4 conn=Wye kv=0.38 pf=0.92 pmpp=1.664 kva=2.0 irradiance=1.0 
~ temperature=25 %cutin=0.1 %cutout=0.1 effcurve=Myeff P-TCurve=MyPvsT Daily=PVIrrad_diaria TDaily=MyTemp 

New "PVsystem.GD.CE.000.468.961" phases=3 bus1=282686457.1.2.3.4 conn=Wye kv=0.38 pf=0.92 pmpp=0.939 kva=1.0 irradiance=1.0 
~ temperature=25 %cutin=0.1 %cutout=0.1 effcurve=Myeff P-TCurve=MyPvsT Daily=PVIrrad_diaria TDaily=MyTemp 

New "PVsystem.GD.CE.001.276.512" phases=3 bus1=143322816.1.2.3.4 conn=Wye kv=0.38 pf=0.92 pmpp=2.263 kva=3.0 irradiance=1.0 
~ temperature=25 %cutin=0.1 %cutout=0.1 effcurve=Myeff P-TCurve=MyPvsT Daily=PVIrrad_diaria TDaily=MyTemp 

New "PVsystem.GD.CE.000.004.605" phases=3 bus1=58724101.1.2.3.4 conn=Wye kv=0.38 pf=0.92 pmpp=2.414 kva=3.0 irradiance=1.0 
~ temperature=25 %cutin=0.1 %cutout=0.1 effcurve=Myeff P-TCurve=MyPvsT Daily=PVIrrad_diaria TDaily=MyTemp 

New "PVsystem.GD.CE.000.451.222" phases=3 bus1=152055754.1.2.3.4 conn=Wye kv=0.38 pf=0.92 pmpp=1.187 kva=2.0 irradiance=1.0 
~ temperature=25 %cutin=0.1 %cutout=0.1 effcurve=Myeff P-TCurve=MyPvsT Daily=PVIrrad_diaria TDaily=MyTemp 

New "PVsystem.GD.CE.000.618.647" phases=1 bus1=117195339.1.4 conn=Wye kv=0.219 pf=0.92 pmpp=0.902 kva=1.0 irradiance=1.0 
~ temperature=25 %cutin=0.1 %cutout=0.1 effcurve=Myeff P-TCurve=MyPvsT Daily=PVIrrad_diaria TDaily=MyTemp 

New "PVsystem.GD.CE.000.468.684" phases=1 bus1=151673305.1.4 conn=Wye kv=0.219 pf=0.92 pmpp=1.441 kva=2.0 irradiance=1.0 
~ temperature=25 %cutin=0.1 %cutout=0.1 effcurve=Myeff P-TCurve=MyPvsT Daily=PVIrrad_diaria TDaily=MyTemp 

New "PVsystem.GD.CE.000.589.265" phases=3 bus1=60137083.1.2.3.4 conn=Wye kv=0.38 pf=0.92 pmpp=1.48 kva=2.0 irradiance=1.0 
~ temperature=25 %cutin=0.1 %cutout=0.1 effcurve=Myeff P-TCurve=MyPvsT Daily=PVIrrad_diaria TDaily=MyTemp 

New "PVsystem.GD.CE.001.064.143" phases=1 bus1=283943658.1.4 conn=Wye kv=0.219 pf=0.92 pmpp=0.794 kva=1.0 irradiance=1.0 
~ temperature=25 %cutin=0.1 %cutout=0.1 effcurve=Myeff P-TCurve=MyPvsT Daily=PVIrrad_diaria TDaily=MyTemp 

New "PVsystem.GD.CE.000.752.038" phases=3 bus1=151100156.1.2.3.4 conn=Wye kv=0.38 pf=0.92 pmpp=2.92 kva=3.0 irradiance=1.0 
~ temperature=25 %cutin=0.1 %cutout=0.1 effcurve=Myeff P-TCurve=MyPvsT Daily=PVIrrad_diaria TDaily=MyTemp 

New "PVsystem.GD.CE.000.534.648" phases=3 bus1=151210902.1.2.3.4 conn=Wye kv=0.38 pf=0.92 pmpp=2.043 kva=3.0 irradiance=1.0 
~ temperature=25 %cutin=0.1 %cutout=0.1 effcurve=Myeff P-TCurve=MyPvsT Daily=PVIrrad_diaria TDaily=MyTemp 

New "PVsystem.GD.CE.000.146.363" phases=3 bus1=289980671.1.2.3.4 conn=Wye kv=0.38 pf=0.92 pmpp=24.174 kva=25.0 irradiance=1.0 
~ temperature=25 %cutin=0.1 %cutout=0.1 effcurve=Myeff P-TCurve=MyPvsT Daily=PVIrrad_diaria TDaily=MyTemp 

New "PVsystem.GD.CE.000.807.021" phases=1 bus1=153336949.2.4 conn=Wye kv=0.219 pf=0.92 pmpp=0.388 kva=1.0 irradiance=1.0 
~ temperature=25 %cutin=0.1 %cutout=0.1 effcurve=Myeff P-TCurve=MyPvsT Daily=PVIrrad_diaria TDaily=MyTemp 

New "PVsystem.GD.CE.000.015.120" phases=3 bus1=162745403.1.2.3.4 conn=Wye kv=0.38 pf=0.92 pmpp=1.097 kva=2.0 irradiance=1.0 
~ temperature=25 %cutin=0.1 %cutout=0.1 effcurve=Myeff P-TCurve=MyPvsT Daily=PVIrrad_diaria TDaily=MyTemp 

New "PVsystem.GD.CE.000.005.010" phases=3 bus1=162852112.1.2.3.4 conn=Wye kv=0.38 pf=0.92 pmpp=1.045 kva=2.0 irradiance=1.0 
~ temperature=25 %cutin=0.1 %cutout=0.1 effcurve=Myeff P-TCurve=MyPvsT Daily=PVIrrad_diaria TDaily=MyTemp 

New "PVsystem.GD.CE.000.950.611" phases=3 bus1=266879953.1.2.3.4 conn=Wye kv=0.38 pf=0.92 pmpp=2.088 kva=3.0 irradiance=1.0 
~ temperature=25 %cutin=0.1 %cutout=0.1 effcurve=Myeff P-TCurve=MyPvsT Daily=PVIrrad_diaria TDaily=MyTemp 

New "PVsystem.GD.CE.000.180.150" phases=3 bus1=155071280.1.2.3.4 conn=Wye kv=0.38 pf=0.92 pmpp=1.356 kva=2.0 irradiance=1.0 
~ temperature=25 %cutin=0.1 %cutout=0.1 effcurve=Myeff P-TCurve=MyPvsT Daily=PVIrrad_diaria TDaily=MyTemp 

New "PVsystem.GD.CE.000.049.628" phases=3 bus1=156095901.1.2.3.4 conn=Wye kv=0.38 pf=0.92 pmpp=1.485 kva=2.0 irradiance=1.0 
~ temperature=25 %cutin=0.1 %cutout=0.1 effcurve=Myeff P-TCurve=MyPvsT Daily=PVIrrad_diaria TDaily=MyTemp 

New "PVsystem.GD.CE.000.011.624" phases=3 bus1=137319704.1.2.3.4 conn=Wye kv=0.38 pf=0.92 pmpp=0.513 kva=1.0 irradiance=1.0 
~ temperature=25 %cutin=0.1 %cutout=0.1 effcurve=Myeff P-TCurve=MyPvsT Daily=PVIrrad_diaria TDaily=MyTemp 

New "PVsystem.GD.CE.000.149.440" phases=3 bus1=144721802.1.2.3.4 conn=Wye kv=0.38 pf=0.92 pmpp=2.917 kva=3.0 irradiance=1.0 
~ temperature=25 %cutin=0.1 %cutout=0.1 effcurve=Myeff P-TCurve=MyPvsT Daily=PVIrrad_diaria TDaily=MyTemp 

New "PVsystem.GD.CE.000.004.610" phases=3 bus1=163719356.1.2.3.4 conn=Wye kv=0.38 pf=0.92 pmpp=1.62 kva=2.0 irradiance=1.0 
~ temperature=25 %cutin=0.1 %cutout=0.1 effcurve=Myeff P-TCurve=MyPvsT Daily=PVIrrad_diaria TDaily=MyTemp 

New "PVsystem.GD.CE.000.210.719" phases=1 bus1=142632883.1.4 conn=Wye kv=0.219 pf=0.92 pmpp=2.913 kva=3.0 irradiance=1.0 
~ temperature=25 %cutin=0.1 %cutout=0.1 effcurve=Myeff P-TCurve=MyPvsT Daily=PVIrrad_diaria TDaily=MyTemp 

New "PVsystem.GD.CE.000.182.764" phases=3 bus1=101675221.1.2.3.4 conn=Wye kv=0.38 pf=0.92 pmpp=0.159 kva=1.0 irradiance=1.0 
~ temperature=25 %cutin=0.1 %cutout=0.1 effcurve=Myeff P-TCurve=MyPvsT Daily=PVIrrad_diaria TDaily=MyTemp 

New "PVsystem.GD.CE.000.148.826" phases=3 bus1=283938152.1.2.3.4 conn=Wye kv=0.38 pf=0.92 pmpp=1.193 kva=2.0 irradiance=1.0 
~ temperature=25 %cutin=0.1 %cutout=0.1 effcurve=Myeff P-TCurve=MyPvsT Daily=PVIrrad_diaria TDaily=MyTemp 

New "PVsystem.GD.CE.000.843.067" phases=3 bus1=147078023.1.2.3.4 conn=Wye kv=0.38 pf=0.92 pmpp=1.559 kva=2.0 irradiance=1.0 
~ temperature=25 %cutin=0.1 %cutout=0.1 effcurve=Myeff P-TCurve=MyPvsT Daily=PVIrrad_diaria TDaily=MyTemp 

New "PVsystem.GD.CE.001.431.834" phases=1 bus1=213872910.1.4 conn=Wye kv=0.219 pf=0.92 pmpp=0.894 kva=1.0 irradiance=1.0 
~ temperature=25 %cutin=0.1 %cutout=0.1 effcurve=Myeff P-TCurve=MyPvsT Daily=PVIrrad_diaria TDaily=MyTemp 

New "PVsystem.GD.CE.000.210.334" phases=3 bus1=159023471.1.2.3.4 conn=Wye kv=0.38 pf=0.92 pmpp=7.727 kva=8.0 irradiance=1.0 
~ temperature=25 %cutin=0.1 %cutout=0.1 effcurve=Myeff P-TCurve=MyPvsT Daily=PVIrrad_diaria TDaily=MyTemp 

New "PVsystem.GD.CE.000.947.238" phases=3 bus1=213790393.1.2.3.4 conn=Wye kv=0.38 pf=0.92 pmpp=2.832 kva=3.0 irradiance=1.0 
~ temperature=25 %cutin=0.1 %cutout=0.1 effcurve=Myeff P-TCurve=MyPvsT Daily=PVIrrad_diaria TDaily=MyTemp 

New "PVsystem.GD.CE.000.188.659" phases=3 bus1=144551489.1.2.3.4 conn=Wye kv=0.38 pf=0.92 pmpp=0.63 kva=1.0 irradiance=1.0 
~ temperature=25 %cutin=0.1 %cutout=0.1 effcurve=Myeff P-TCurve=MyPvsT Daily=PVIrrad_diaria TDaily=MyTemp 

New "PVsystem.GD.CE.000.169.051" phases=3 bus1=153522656.1.2.3.4 conn=Wye kv=0.38 pf=0.92 pmpp=1.987 kva=2.0 irradiance=1.0 
~ temperature=25 %cutin=0.1 %cutout=0.1 effcurve=Myeff P-TCurve=MyPvsT Daily=PVIrrad_diaria TDaily=MyTemp 

New "PVsystem.GD.CE.000.939.883" phases=3 bus1=153333065.1.2.3.4 conn=Wye kv=0.38 pf=0.92 pmpp=2.627 kva=3.0 irradiance=1.0 
~ temperature=25 %cutin=0.1 %cutout=0.1 effcurve=Myeff P-TCurve=MyPvsT Daily=PVIrrad_diaria TDaily=MyTemp 

New "PVsystem.GD.CE.000.169.068" phases=3 bus1=141334218.1.2.3.4 conn=Wye kv=0.38 pf=0.92 pmpp=1.834 kva=2.0 irradiance=1.0 
~ temperature=25 %cutin=0.1 %cutout=0.1 effcurve=Myeff P-TCurve=MyPvsT Daily=PVIrrad_diaria TDaily=MyTemp 

New "PVsystem.GD.CE.000.971.349" phases=1 bus1=208861144.1.4 conn=Wye kv=0.219 pf=0.92 pmpp=0.807 kva=1.0 irradiance=1.0 
~ temperature=25 %cutin=0.1 %cutout=0.1 effcurve=Myeff P-TCurve=MyPvsT Daily=PVIrrad_diaria TDaily=MyTemp 

New "PVsystem.GD.CE.000.254.333" phases=1 bus1=155089447.2.4 conn=Wye kv=0.219 pf=0.92 pmpp=0.654 kva=1.0 irradiance=1.0 
~ temperature=25 %cutin=0.1 %cutout=0.1 effcurve=Myeff P-TCurve=MyPvsT Daily=PVIrrad_diaria TDaily=MyTemp 

New "PVsystem.GD.CE.000.884.346" phases=3 bus1=116949255.1.2.3.4 conn=Wye kv=0.38 pf=0.92 pmpp=4.458 kva=5.0 irradiance=1.0 
~ temperature=25 %cutin=0.1 %cutout=0.1 effcurve=Myeff P-TCurve=MyPvsT Daily=PVIrrad_diaria TDaily=MyTemp 

New "PVsystem.GD.CE.000.182.604" phases=3 bus1=106699924.1.2.3.4 conn=Wye kv=0.38 pf=0.92 pmpp=1.972 kva=2.0 irradiance=1.0 
~ temperature=25 %cutin=0.1 %cutout=0.1 effcurve=Myeff P-TCurve=MyPvsT Daily=PVIrrad_diaria TDaily=MyTemp 

New "PVsystem.GD.CE.000.190.683" phases=3 bus1=159566629.1.2.3.4 conn=Wye kv=0.38 pf=0.92 pmpp=0.998 kva=1.0 irradiance=1.0 
~ temperature=25 %cutin=0.1 %cutout=0.1 effcurve=Myeff P-TCurve=MyPvsT Daily=PVIrrad_diaria TDaily=MyTemp 

New "PVsystem.GD.CE.000.179.293" phases=3 bus1=151615347.1.2.3.4 conn=Wye kv=0.38 pf=0.92 pmpp=2.028 kva=3.0 irradiance=1.0 
~ temperature=25 %cutin=0.1 %cutout=0.1 effcurve=Myeff P-TCurve=MyPvsT Daily=PVIrrad_diaria TDaily=MyTemp 

New "PVsystem.GD.CE.000.697.739" phases=3 bus1=161376448.1.2.3.4 conn=Wye kv=0.38 pf=0.92 pmpp=1.075 kva=2.0 irradiance=1.0 
~ temperature=25 %cutin=0.1 %cutout=0.1 effcurve=Myeff P-TCurve=MyPvsT Daily=PVIrrad_diaria TDaily=MyTemp 

New "PVsystem.GD.CE.000.313.768" phases=3 bus1=214169264.1.2.3.4 conn=Wye kv=0.38 pf=0.92 pmpp=0.783 kva=1.0 irradiance=1.0 
~ temperature=25 %cutin=0.1 %cutout=0.1 effcurve=Myeff P-TCurve=MyPvsT Daily=PVIrrad_diaria TDaily=MyTemp 

New "PVsystem.GD.CE.000.761.725" phases=3 bus1=282686502.1.2.3.4 conn=Wye kv=0.38 pf=0.92 pmpp=1.021 kva=2.0 irradiance=1.0 
~ temperature=25 %cutin=0.1 %cutout=0.1 effcurve=Myeff P-TCurve=MyPvsT Daily=PVIrrad_diaria TDaily=MyTemp 

New "PVsystem.GD.CE.001.522.800" phases=3 bus1=282686517.1.2.3.4 conn=Wye kv=0.38 pf=0.92 pmpp=1.12 kva=2.0 irradiance=1.0 
~ temperature=25 %cutin=0.1 %cutout=0.1 effcurve=Myeff P-TCurve=MyPvsT Daily=PVIrrad_diaria TDaily=MyTemp 

New "PVsystem.GD.CE.000.018.228" phases=1 bus1=151440010.2.4 conn=Wye kv=0.219 pf=0.92 pmpp=0.207 kva=1.0 irradiance=1.0 
~ temperature=25 %cutin=0.1 %cutout=0.1 effcurve=Myeff P-TCurve=MyPvsT Daily=PVIrrad_diaria TDaily=MyTemp 

New "PVsystem.GD.CE.000.449.245" phases=1 bus1=107851932.2.4 conn=Wye kv=0.219 pf=0.92 pmpp=0.861 kva=1.0 irradiance=1.0 
~ temperature=25 %cutin=0.1 %cutout=0.1 effcurve=Myeff P-TCurve=MyPvsT Daily=PVIrrad_diaria TDaily=MyTemp 

New "PVsystem.GD.CE.001.359.083" phases=3 bus1=158965693.1.2.3.4 conn=Wye kv=0.38 pf=0.92 pmpp=2.645 kva=3.0 irradiance=1.0 
~ temperature=25 %cutin=0.1 %cutout=0.1 effcurve=Myeff P-TCurve=MyPvsT Daily=PVIrrad_diaria TDaily=MyTemp 

New "PVsystem.GD.CE.000.200.098" phases=3 bus1=214820368.1.2.3.4 conn=Wye kv=0.38 pf=0.92 pmpp=2.073 kva=3.0 irradiance=1.0 
~ temperature=25 %cutin=0.1 %cutout=0.1 effcurve=Myeff P-TCurve=MyPvsT Daily=PVIrrad_diaria TDaily=MyTemp 

New "PVsystem.GD.CE.000.016.108" phases=3 bus1=157853631.1.2.3.4 conn=Wye kv=0.38 pf=0.92 pmpp=0.467 kva=1.0 irradiance=1.0 
~ temperature=25 %cutin=0.1 %cutout=0.1 effcurve=Myeff P-TCurve=MyPvsT Daily=PVIrrad_diaria TDaily=MyTemp 

New "PVsystem.GD.CE.000.800.754" phases=3 bus1=162210480.1.2.3.4 conn=Wye kv=0.38 pf=0.92 pmpp=1.637 kva=2.0 irradiance=1.0 
~ temperature=25 %cutin=0.1 %cutout=0.1 effcurve=Myeff P-TCurve=MyPvsT Daily=PVIrrad_diaria TDaily=MyTemp 

New "PVsystem.GD.CE.000.535.661" phases=3 bus1=114068604.1.2.3.4 conn=Wye kv=0.38 pf=0.92 pmpp=0.896 kva=1.0 irradiance=1.0 
~ temperature=25 %cutin=0.1 %cutout=0.1 effcurve=Myeff P-TCurve=MyPvsT Daily=PVIrrad_diaria TDaily=MyTemp 

New "PVsystem.GD.CE.001.318.406" phases=3 bus1=223010251.1.2.3.4 conn=Wye kv=0.38 pf=0.92 pmpp=3.012 kva=4.0 irradiance=1.0 
~ temperature=25 %cutin=0.1 %cutout=0.1 effcurve=Myeff P-TCurve=MyPvsT Daily=PVIrrad_diaria TDaily=MyTemp 

New "PVsystem.GD.CE.000.261.615" phases=1 bus1=109769622.2.4 conn=Wye kv=0.219 pf=0.92 pmpp=1.253 kva=2.0 irradiance=1.0 
~ temperature=25 %cutin=0.1 %cutout=0.1 effcurve=Myeff P-TCurve=MyPvsT Daily=PVIrrad_diaria TDaily=MyTemp 

New "PVsystem.GD.CE.001.445.989" phases=3 bus1=167176937.1.2.3.4 conn=Wye kv=0.38 pf=0.92 pmpp=0.785 kva=1.0 irradiance=1.0 
~ temperature=25 %cutin=0.1 %cutout=0.1 effcurve=Myeff P-TCurve=MyPvsT Daily=PVIrrad_diaria TDaily=MyTemp 

New "PVsystem.GD.CE.000.241.060" phases=1 bus1=212533210.2.4 conn=Wye kv=0.219 pf=0.92 pmpp=1.058 kva=2.0 irradiance=1.0 
~ temperature=25 %cutin=0.1 %cutout=0.1 effcurve=Myeff P-TCurve=MyPvsT Daily=PVIrrad_diaria TDaily=MyTemp 

New "PVsystem.GD.CE.000.049.596" phases=3 bus1=163990327.1.2.3.4 conn=Wye kv=0.38 pf=0.92 pmpp=1.362 kva=2.0 irradiance=1.0 
~ temperature=25 %cutin=0.1 %cutout=0.1 effcurve=Myeff P-TCurve=MyPvsT Daily=PVIrrad_diaria TDaily=MyTemp 

New "PVsystem.GD.CE.000.834.208" phases=1 bus1=107322873.2.4 conn=Wye kv=0.219 pf=0.92 pmpp=0.437 kva=1.0 irradiance=1.0 
~ temperature=25 %cutin=0.1 %cutout=0.1 effcurve=Myeff P-TCurve=MyPvsT Daily=PVIrrad_diaria TDaily=MyTemp 

New "PVsystem.GD.CE.000.107.419" phases=1 bus1=161817113.1.4 conn=Wye kv=0.219 pf=0.92 pmpp=0.089 kva=1.0 irradiance=1.0 
~ temperature=25 %cutin=0.1 %cutout=0.1 effcurve=Myeff P-TCurve=MyPvsT Daily=PVIrrad_diaria TDaily=MyTemp 

New "PVsystem.GD.CE.000.135.137" phases=3 bus1=161569313.1.2.3.4 conn=Wye kv=0.38 pf=0.92 pmpp=1.7 kva=2.0 irradiance=1.0 
~ temperature=25 %cutin=0.1 %cutout=0.1 effcurve=Myeff P-TCurve=MyPvsT Daily=PVIrrad_diaria TDaily=MyTemp 

New "PVsystem.GD.CE.001.009.996" phases=3 bus1=138084505.1.2.3.4 conn=Wye kv=0.38 pf=0.92 pmpp=1.165 kva=2.0 irradiance=1.0 
~ temperature=25 %cutin=0.1 %cutout=0.1 effcurve=Myeff P-TCurve=MyPvsT Daily=PVIrrad_diaria TDaily=MyTemp 

New "PVsystem.GD.CE.000.240.878" phases=1 bus1=103852160.2.4 conn=Wye kv=0.219 pf=0.92 pmpp=0.141 kva=1.0 irradiance=1.0 
~ temperature=25 %cutin=0.1 %cutout=0.1 effcurve=Myeff P-TCurve=MyPvsT Daily=PVIrrad_diaria TDaily=MyTemp 

New "PVsystem.GD.CE.001.214.128" phases=3 bus1=160089193TR.1.2.3.4 conn=Wye kv=0.38 pf=0.92 pmpp=8.0 kva=8.0 irradiance=1.0 
~ temperature=25 %cutin=0.1 %cutout=0.1 effcurve=Myeff P-TCurve=MyPvsT Daily=PVIrrad_diaria TDaily=MyTemp 

New "PVsystem.GD.CE.000.222.819" phases=1 bus1=111291502.2.4 conn=Wye kv=0.219 pf=0.92 pmpp=0.598 kva=1.0 irradiance=1.0 
~ temperature=25 %cutin=0.1 %cutout=0.1 effcurve=Myeff P-TCurve=MyPvsT Daily=PVIrrad_diaria TDaily=MyTemp 

New "PVsystem.GD.CE.000.469.715" phases=3 bus1=279210588.1.2.3.4 conn=Wye kv=0.38 pf=0.92 pmpp=1.943 kva=2.0 irradiance=1.0 
~ temperature=25 %cutin=0.1 %cutout=0.1 effcurve=Myeff P-TCurve=MyPvsT Daily=PVIrrad_diaria TDaily=MyTemp 

New "PVsystem.GD.CE.000.326.831" phases=3 bus1=44271232TR.1.2.3.4 conn=Wye kv=0.38 pf=0.92 pmpp=7.92 kva=8.0 irradiance=1.0 
~ temperature=25 %cutin=0.1 %cutout=0.1 effcurve=Myeff P-TCurve=MyPvsT Daily=PVIrrad_diaria TDaily=MyTemp 

New "PVsystem.GD.CE.000.291.977" phases=3 bus1=1042204TR.1.2.3.4 conn=Wye kv=0.38 pf=0.92 pmpp=10.0 kva=10.0 irradiance=1.0 
~ temperature=25 %cutin=0.1 %cutout=0.1 effcurve=Myeff P-TCurve=MyPvsT Daily=PVIrrad_diaria TDaily=MyTemp 

New "PVsystem.GD.CE.001.358.158" phases=3 bus1=218956549.1.2.3.4 conn=Wye kv=0.38 pf=0.92 pmpp=1.278 kva=2.0 irradiance=1.0 
~ temperature=25 %cutin=0.1 %cutout=0.1 effcurve=Myeff P-TCurve=MyPvsT Daily=PVIrrad_diaria TDaily=MyTemp 

New "PVsystem.GD.CE.000.894.708" phases=1 bus1=289979876.2.4 conn=Wye kv=0.219 pf=0.92 pmpp=1.076 kva=2.0 irradiance=1.0 
~ temperature=25 %cutin=0.1 %cutout=0.1 effcurve=Myeff P-TCurve=MyPvsT Daily=PVIrrad_diaria TDaily=MyTemp 

New "PVsystem.GD.CE.000.004.562" phases=3 bus1=161352435.1.2.3.4 conn=Wye kv=0.38 pf=0.92 pmpp=3.176 kva=4.0 irradiance=1.0 
~ temperature=25 %cutin=0.1 %cutout=0.1 effcurve=Myeff P-TCurve=MyPvsT Daily=PVIrrad_diaria TDaily=MyTemp 

New "PVsystem.GD.CE.001.106.982" phases=3 bus1=124549150.1.2.3.4 conn=Wye kv=0.38 pf=0.92 pmpp=2.319 kva=3.0 irradiance=1.0 
~ temperature=25 %cutin=0.1 %cutout=0.1 effcurve=Myeff P-TCurve=MyPvsT Daily=PVIrrad_diaria TDaily=MyTemp 

New "PVsystem.GD.CE.000.498.342" phases=1 bus1=161984911.2.4 conn=Wye kv=0.219 pf=0.92 pmpp=0.974 kva=1.0 irradiance=1.0 
~ temperature=25 %cutin=0.1 %cutout=0.1 effcurve=Myeff P-TCurve=MyPvsT Daily=PVIrrad_diaria TDaily=MyTemp 

New "PVsystem.GD.CE.001.153.726" phases=3 bus1=162020029.1.2.3.4 conn=Wye kv=0.38 pf=0.92 pmpp=1.267 kva=2.0 irradiance=1.0 
~ temperature=25 %cutin=0.1 %cutout=0.1 effcurve=Myeff P-TCurve=MyPvsT Daily=PVIrrad_diaria TDaily=MyTemp 

New "PVsystem.GD.CE.000.016.102" phases=3 bus1=162020029.1.2.3.4 conn=Wye kv=0.38 pf=0.92 pmpp=1.583 kva=2.0 irradiance=1.0 
~ temperature=25 %cutin=0.1 %cutout=0.1 effcurve=Myeff P-TCurve=MyPvsT Daily=PVIrrad_diaria TDaily=MyTemp 

New "PVsystem.GD.CE.000.929.471" phases=3 bus1=164376222.1.2.3.4 conn=Wye kv=0.38 pf=0.92 pmpp=1.091 kva=2.0 irradiance=1.0 
~ temperature=25 %cutin=0.1 %cutout=0.1 effcurve=Myeff P-TCurve=MyPvsT Daily=PVIrrad_diaria TDaily=MyTemp 

New "PVsystem.GD.CE.000.616.165" phases=3 bus1=144551489.1.2.3.4 conn=Wye kv=0.38 pf=0.92 pmpp=1.045 kva=2.0 irradiance=1.0 
~ temperature=25 %cutin=0.1 %cutout=0.1 effcurve=Myeff P-TCurve=MyPvsT Daily=PVIrrad_diaria TDaily=MyTemp 

New "PVsystem.GD.CE.000.015.123" phases=3 bus1=158626860.1.2.3.4 conn=Wye kv=0.38 pf=0.92 pmpp=1.16 kva=2.0 irradiance=1.0 
~ temperature=25 %cutin=0.1 %cutout=0.1 effcurve=Myeff P-TCurve=MyPvsT Daily=PVIrrad_diaria TDaily=MyTemp 

New "PVsystem.GD.CE.000.081.815" phases=3 bus1=167878818.1.2.3.4 conn=Wye kv=0.38 pf=0.92 pmpp=2.845 kva=3.0 irradiance=1.0 
~ temperature=25 %cutin=0.1 %cutout=0.1 effcurve=Myeff P-TCurve=MyPvsT Daily=PVIrrad_diaria TDaily=MyTemp 

New "PVsystem.GD.CE.000.261.617" phases=1 bus1=198585641.2.4 conn=Wye kv=0.219 pf=0.92 pmpp=0.908 kva=1.0 irradiance=1.0 
~ temperature=25 %cutin=0.1 %cutout=0.1 effcurve=Myeff P-TCurve=MyPvsT Daily=PVIrrad_diaria TDaily=MyTemp 

New "PVsystem.GD.CE.000.687.795" phases=3 bus1=167888196.1.2.3.4 conn=Wye kv=0.38 pf=0.92 pmpp=1.199 kva=2.0 irradiance=1.0 
~ temperature=25 %cutin=0.1 %cutout=0.1 effcurve=Myeff P-TCurve=MyPvsT Daily=PVIrrad_diaria TDaily=MyTemp 

New "PVsystem.GD.CE.000.795.388" phases=3 bus1=289796599.1.2.3.4 conn=Wye kv=0.38 pf=0.92 pmpp=1.847 kva=2.0 irradiance=1.0 
~ temperature=25 %cutin=0.1 %cutout=0.1 effcurve=Myeff P-TCurve=MyPvsT Daily=PVIrrad_diaria TDaily=MyTemp 

New "PVsystem.GD.CE.000.270.273" phases=3 bus1=170239423.1.2.3.4 conn=Wye kv=0.38 pf=0.92 pmpp=2.605 kva=3.0 irradiance=1.0 
~ temperature=25 %cutin=0.1 %cutout=0.1 effcurve=Myeff P-TCurve=MyPvsT Daily=PVIrrad_diaria TDaily=MyTemp 

New "PVsystem.GD.CE.000.240.843" phases=3 bus1=104293317.1.2.3.4 conn=Wye kv=0.38 pf=0.92 pmpp=0.388 kva=1.0 irradiance=1.0 
~ temperature=25 %cutin=0.1 %cutout=0.1 effcurve=Myeff P-TCurve=MyPvsT Daily=PVIrrad_diaria TDaily=MyTemp 

New "PVsystem.GD.CE.000.640.957" phases=3 bus1=111811504.1.2.3.4 conn=Wye kv=0.38 pf=0.92 pmpp=0.807 kva=1.0 irradiance=1.0 
~ temperature=25 %cutin=0.1 %cutout=0.1 effcurve=Myeff P-TCurve=MyPvsT Daily=PVIrrad_diaria TDaily=MyTemp 

New "PVsystem.GD.CE.000.132.035" phases=1 bus1=212623504.2.4 conn=Wye kv=0.219 pf=0.92 pmpp=1.21 kva=2.0 irradiance=1.0 
~ temperature=25 %cutin=0.1 %cutout=0.1 effcurve=Myeff P-TCurve=MyPvsT Daily=PVIrrad_diaria TDaily=MyTemp 

New "PVsystem.GD.CE.001.037.396" phases=1 bus1=190023982.2.4 conn=Wye kv=0.219 pf=0.92 pmpp=0.526 kva=1.0 irradiance=1.0 
~ temperature=25 %cutin=0.1 %cutout=0.1 effcurve=Myeff P-TCurve=MyPvsT Daily=PVIrrad_diaria TDaily=MyTemp 

New "PVsystem.GD.CE.000.040.083" phases=1 bus1=212503576.2.4 conn=Wye kv=0.219 pf=0.92 pmpp=1.07 kva=2.0 irradiance=1.0 
~ temperature=25 %cutin=0.1 %cutout=0.1 effcurve=Myeff P-TCurve=MyPvsT Daily=PVIrrad_diaria TDaily=MyTemp 

New "PVsystem.GD.CE.000.291.809" phases=3 bus1=164516264.1.2.3.4 conn=Wye kv=0.38 pf=0.92 pmpp=2.527 kva=3.0 irradiance=1.0 
~ temperature=25 %cutin=0.1 %cutout=0.1 effcurve=Myeff P-TCurve=MyPvsT Daily=PVIrrad_diaria TDaily=MyTemp 

New "PVsystem.GD.CE.000.418.249" phases=1 bus1=124224322.2.4 conn=Wye kv=0.219 pf=0.92 pmpp=0.776 kva=1.0 irradiance=1.0 
~ temperature=25 %cutin=0.1 %cutout=0.1 effcurve=Myeff P-TCurve=MyPvsT Daily=PVIrrad_diaria TDaily=MyTemp 

New "PVsystem.GD.CE.000.857.202" phases=1 bus1=111339040.3.4 conn=Wye kv=0.219 pf=0.92 pmpp=0.816 kva=1.0 irradiance=1.0 
~ temperature=25 %cutin=0.1 %cutout=0.1 effcurve=Myeff P-TCurve=MyPvsT Daily=PVIrrad_diaria TDaily=MyTemp 

New "PVsystem.GD.CE.001.130.174" phases=1 bus1=180455465.3.4 conn=Wye kv=0.219 pf=0.92 pmpp=1.356 kva=2.0 irradiance=1.0 
~ temperature=25 %cutin=0.1 %cutout=0.1 effcurve=Myeff P-TCurve=MyPvsT Daily=PVIrrad_diaria TDaily=MyTemp 

New "PVsystem.GD.CE.000.179.707" phases=3 bus1=150240314.1.2.3.4 conn=Wye kv=0.38 pf=0.92 pmpp=5.118 kva=6.0 irradiance=1.0 
~ temperature=25 %cutin=0.1 %cutout=0.1 effcurve=Myeff P-TCurve=MyPvsT Daily=PVIrrad_diaria TDaily=MyTemp 

New "PVsystem.GD.CE.001.346.168" phases=3 bus1=262066470.1.2.3.4 conn=Wye kv=0.38 pf=0.92 pmpp=1.51 kva=2.0 irradiance=1.0 
~ temperature=25 %cutin=0.1 %cutout=0.1 effcurve=Myeff P-TCurve=MyPvsT Daily=PVIrrad_diaria TDaily=MyTemp 

New "PVsystem.GD.CE.000.395.383" phases=3 bus1=162665001.1.2.3.4 conn=Wye kv=0.38 pf=0.92 pmpp=1.659 kva=2.0 irradiance=1.0 
~ temperature=25 %cutin=0.1 %cutout=0.1 effcurve=Myeff P-TCurve=MyPvsT Daily=PVIrrad_diaria TDaily=MyTemp 

New "PVsystem.GD.CE.001.238.960" phases=1 bus1=280592043.2.4 conn=Wye kv=0.219 pf=0.92 pmpp=0.224 kva=1.0 irradiance=1.0 
~ temperature=25 %cutin=0.1 %cutout=0.1 effcurve=Myeff P-TCurve=MyPvsT Daily=PVIrrad_diaria TDaily=MyTemp 

New "PVsystem.GD.CE.000.273.318" phases=3 bus1=44271679TR.1.2.3.4 conn=Wye kv=0.38 pf=0.92 pmpp=12.0 kva=12.0 irradiance=1.0 
~ temperature=25 %cutin=0.1 %cutout=0.1 effcurve=Myeff P-TCurve=MyPvsT Daily=PVIrrad_diaria TDaily=MyTemp 

New "PVsystem.GD.CE.001.357.483" phases=1 bus1=295733241.2.4 conn=Wye kv=0.219 pf=0.92 pmpp=1.975 kva=2.0 irradiance=1.0 
~ temperature=25 %cutin=0.1 %cutout=0.1 effcurve=Myeff P-TCurve=MyPvsT Daily=PVIrrad_diaria TDaily=MyTemp 

New "PVsystem.GD.CE.000.373.436" phases=3 bus1=172931801.1.2.3.4 conn=Wye kv=0.38 pf=0.92 pmpp=3.213 kva=4.0 irradiance=1.0 
~ temperature=25 %cutin=0.1 %cutout=0.1 effcurve=Myeff P-TCurve=MyPvsT Daily=PVIrrad_diaria TDaily=MyTemp 

New "PVsystem.GD.CE.000.449.026" phases=3 bus1=288667225.1.2.3.4 conn=Wye kv=0.38 pf=0.92 pmpp=1.68 kva=2.0 irradiance=1.0 
~ temperature=25 %cutin=0.1 %cutout=0.1 effcurve=Myeff P-TCurve=MyPvsT Daily=PVIrrad_diaria TDaily=MyTemp 

New "PVsystem.GD.CE.001.118.559" phases=3 bus1=272935168.1.2.3.4 conn=Wye kv=0.38 pf=0.92 pmpp=0.965 kva=1.0 irradiance=1.0 
~ temperature=25 %cutin=0.1 %cutout=0.1 effcurve=Myeff P-TCurve=MyPvsT Daily=PVIrrad_diaria TDaily=MyTemp 

New "PVsystem.GD.CE.001.007.083" phases=3 bus1=297810491.1.2.3.4 conn=Wye kv=0.38 pf=0.92 pmpp=2.432 kva=3.0 irradiance=1.0 
~ temperature=25 %cutin=0.1 %cutout=0.1 effcurve=Myeff P-TCurve=MyPvsT Daily=PVIrrad_diaria TDaily=MyTemp 

New "PVsystem.GD.CE.000.313.809" phases=2 bus1=266063968.2.3.4 conn=Wye kv=0.38 pf=0.92 pmpp=1.052 kva=2.0 irradiance=1.0 
~ temperature=25 %cutin=0.1 %cutout=0.1 effcurve=Myeff P-TCurve=MyPvsT Daily=PVIrrad_diaria TDaily=MyTemp 

New "PVsystem.GD.CE.000.766.671" phases=3 bus1=113649003.1.2.3.4 conn=Wye kv=0.38 pf=0.92 pmpp=2.75 kva=3.0 irradiance=1.0 
~ temperature=25 %cutin=0.1 %cutout=0.1 effcurve=Myeff P-TCurve=MyPvsT Daily=PVIrrad_diaria TDaily=MyTemp 

New "PVsystem.GD.CE.001.214.339" phases=3 bus1=190268364.1.2.3.4 conn=Wye kv=0.38 pf=0.92 pmpp=1.775 kva=2.0 irradiance=1.0 
~ temperature=25 %cutin=0.1 %cutout=0.1 effcurve=Myeff P-TCurve=MyPvsT Daily=PVIrrad_diaria TDaily=MyTemp 

New "PVsystem.GD.CE.000.497.176" phases=3 bus1=275049614.1.2.3.4 conn=Wye kv=0.38 pf=0.92 pmpp=1.757 kva=2.0 irradiance=1.0 
~ temperature=25 %cutin=0.1 %cutout=0.1 effcurve=Myeff P-TCurve=MyPvsT Daily=PVIrrad_diaria TDaily=MyTemp 

New "PVsystem.GD.CE.001.493.244" phases=1 bus1=289979999.2.4 conn=Wye kv=0.219 pf=0.92 pmpp=0.257 kva=1.0 irradiance=1.0 
~ temperature=25 %cutin=0.1 %cutout=0.1 effcurve=Myeff P-TCurve=MyPvsT Daily=PVIrrad_diaria TDaily=MyTemp 

New "PVsystem.GD.CE.000.016.075" phases=3 bus1=212568048.1.2.3.4 conn=Wye kv=0.38 pf=0.92 pmpp=1.099 kva=2.0 irradiance=1.0 
~ temperature=25 %cutin=0.1 %cutout=0.1 effcurve=Myeff P-TCurve=MyPvsT Daily=PVIrrad_diaria TDaily=MyTemp 

New "PVsystem.GD.CE.000.417.981" phases=3 bus1=277102178.1.2.3.4 conn=Wye kv=0.38 pf=0.92 pmpp=1.709 kva=2.0 irradiance=1.0 
~ temperature=25 %cutin=0.1 %cutout=0.1 effcurve=Myeff P-TCurve=MyPvsT Daily=PVIrrad_diaria TDaily=MyTemp 

New "PVsystem.GD.CE.000.395.355" phases=3 bus1=245686232.1.2.3.4 conn=Wye kv=0.38 pf=0.92 pmpp=6.215 kva=7.0 irradiance=1.0 
~ temperature=25 %cutin=0.1 %cutout=0.1 effcurve=Myeff P-TCurve=MyPvsT Daily=PVIrrad_diaria TDaily=MyTemp 

New "PVsystem.GD.CE.000.767.918" phases=3 bus1=280146636.1.2.3.4 conn=Wye kv=0.38 pf=0.92 pmpp=0.565 kva=1.0 irradiance=1.0 
~ temperature=25 %cutin=0.1 %cutout=0.1 effcurve=Myeff P-TCurve=MyPvsT Daily=PVIrrad_diaria TDaily=MyTemp 

New "PVsystem.GD.CE.000.373.310" phases=3 bus1=162214774.1.2.3.4 conn=Wye kv=0.38 pf=0.92 pmpp=1.111 kva=2.0 irradiance=1.0 
~ temperature=25 %cutin=0.1 %cutout=0.1 effcurve=Myeff P-TCurve=MyPvsT Daily=PVIrrad_diaria TDaily=MyTemp 

New "PVsystem.GD.CE.000.844.344" phases=1 bus1=146220443.2.4 conn=Wye kv=0.219 pf=0.92 pmpp=0.957 kva=1.0 irradiance=1.0 
~ temperature=25 %cutin=0.1 %cutout=0.1 effcurve=Myeff P-TCurve=MyPvsT Daily=PVIrrad_diaria TDaily=MyTemp 

New "PVsystem.GD.CE.000.341.049" phases=3 bus1=189937564.1.2.3.4 conn=Wye kv=0.38 pf=0.92 pmpp=0.691 kva=1.0 irradiance=1.0 
~ temperature=25 %cutin=0.1 %cutout=0.1 effcurve=Myeff P-TCurve=MyPvsT Daily=PVIrrad_diaria TDaily=MyTemp 

New "PVsystem.GD.CE.000.469.842" phases=3 bus1=295459807.1.2.3.4 conn=Wye kv=0.38 pf=0.92 pmpp=7.889 kva=8.0 irradiance=1.0 
~ temperature=25 %cutin=0.1 %cutout=0.1 effcurve=Myeff P-TCurve=MyPvsT Daily=PVIrrad_diaria TDaily=MyTemp 

New "PVsystem.GD.CE.000.618.793" phases=3 bus1=295461421.1.2.3.4 conn=Wye kv=0.38 pf=0.92 pmpp=15.944 kva=16.0 irradiance=1.0 
~ temperature=25 %cutin=0.1 %cutout=0.1 effcurve=Myeff P-TCurve=MyPvsT Daily=PVIrrad_diaria TDaily=MyTemp 

New "PVsystem.GD.CE.001.433.536" phases=3 bus1=274638845.1.2.3.4 conn=Wye kv=0.38 pf=0.92 pmpp=0.237 kva=1.0 irradiance=1.0 
~ temperature=25 %cutin=0.1 %cutout=0.1 effcurve=Myeff P-TCurve=MyPvsT Daily=PVIrrad_diaria TDaily=MyTemp 

New "PVsystem.GD.CE.000.373.545" phases=3 bus1=272965636.1.2.3.4 conn=Wye kv=0.38 pf=0.92 pmpp=2.082 kva=3.0 irradiance=1.0 
~ temperature=25 %cutin=0.1 %cutout=0.1 effcurve=Myeff P-TCurve=MyPvsT Daily=PVIrrad_diaria TDaily=MyTemp 

New "PVsystem.GD.CE.000.148.301" phases=1 bus1=190066882.1.4 conn=Wye kv=0.219 pf=0.92 pmpp=1.446 kva=2.0 irradiance=1.0 
~ temperature=25 %cutin=0.1 %cutout=0.1 effcurve=Myeff P-TCurve=MyPvsT Daily=PVIrrad_diaria TDaily=MyTemp 

New "PVsystem.GD.CE.000.450.841" phases=3 bus1=207907203.1.2.3.4 conn=Wye kv=0.38 pf=0.92 pmpp=2.149 kva=3.0 irradiance=1.0 
~ temperature=25 %cutin=0.1 %cutout=0.1 effcurve=Myeff P-TCurve=MyPvsT Daily=PVIrrad_diaria TDaily=MyTemp 

New "PVsystem.GD.CE.000.688.649" phases=3 bus1=279366437.1.2.3.4 conn=Wye kv=0.38 pf=0.92 pmpp=2.37 kva=3.0 irradiance=1.0 
~ temperature=25 %cutin=0.1 %cutout=0.1 effcurve=Myeff P-TCurve=MyPvsT Daily=PVIrrad_diaria TDaily=MyTemp 

New "PVsystem.GD.CE.000.469.829" phases=3 bus1=149603539.1.2.3.4 conn=Wye kv=0.38 pf=0.92 pmpp=3.809 kva=4.0 irradiance=1.0 
~ temperature=25 %cutin=0.1 %cutout=0.1 effcurve=Myeff P-TCurve=MyPvsT Daily=PVIrrad_diaria TDaily=MyTemp 

New "PVsystem.GD.CE.000.418.524" phases=1 bus1=278569326.2.4 conn=Wye kv=0.219 pf=0.92 pmpp=5.262 kva=6.0 irradiance=1.0 
~ temperature=25 %cutin=0.1 %cutout=0.1 effcurve=Myeff P-TCurve=MyPvsT Daily=PVIrrad_diaria TDaily=MyTemp 

New "PVsystem.GD.CE.001.009.851" phases=1 bus1=212763542.2.4 conn=Wye kv=0.219 pf=0.92 pmpp=3.2 kva=4.0 irradiance=1.0 
~ temperature=25 %cutin=0.1 %cutout=0.1 effcurve=Myeff P-TCurve=MyPvsT Daily=PVIrrad_diaria TDaily=MyTemp 

New "PVsystem.GD.CE.000.326.742" phases=3 bus1=112922993.1.2.3.4 conn=Wye kv=0.38 pf=0.92 pmpp=2.617 kva=3.0 irradiance=1.0 
~ temperature=25 %cutin=0.1 %cutout=0.1 effcurve=Myeff P-TCurve=MyPvsT Daily=PVIrrad_diaria TDaily=MyTemp 

New "PVsystem.GD.CE.001.060.645" phases=1 bus1=174221883.1.4 conn=Wye kv=0.219 pf=0.92 pmpp=0.472 kva=1.0 irradiance=1.0 
~ temperature=25 %cutin=0.1 %cutout=0.1 effcurve=Myeff P-TCurve=MyPvsT Daily=PVIrrad_diaria TDaily=MyTemp 

New "PVsystem.GD.CE.000.340.648" phases=3 bus1=273550594.1.2.3.4 conn=Wye kv=0.38 pf=0.92 pmpp=1.604 kva=2.0 irradiance=1.0 
~ temperature=25 %cutin=0.1 %cutout=0.1 effcurve=Myeff P-TCurve=MyPvsT Daily=PVIrrad_diaria TDaily=MyTemp 

!New "PVsystem.GD.CE.000.498.530" phases=3 bus1=218644433TR.1.2.3.4 conn=Wye kv=0.38 pf=0.92 pmpp=21.192 kva=22.0 irradiance=1.0 
!~ temperature=25 %cutin=0.1 %cutout=0.1 effcurve=Myeff P-TCurve=MyPvsT Daily=PVIrrad_diaria TDaily=MyTemp 

New "PVsystem.GD.CE.000.764.049" phases=3 bus1=297274230.1.2.3.4 conn=Wye kv=0.38 pf=0.92 pmpp=0.589 kva=1.0 irradiance=1.0 
~ temperature=25 %cutin=0.1 %cutout=0.1 effcurve=Myeff P-TCurve=MyPvsT Daily=PVIrrad_diaria TDaily=MyTemp 

New "PVsystem.GD.CE.001.067.286" phases=3 bus1=113657736.1.2.3.4 conn=Wye kv=0.38 pf=0.92 pmpp=1.042 kva=2.0 irradiance=1.0 
~ temperature=25 %cutin=0.1 %cutout=0.1 effcurve=Myeff P-TCurve=MyPvsT Daily=PVIrrad_diaria TDaily=MyTemp 

New "PVsystem.GD.CE.000.774.680" phases=3 bus1=289734875.1.2.3.4 conn=Wye kv=0.38 pf=0.92 pmpp=0.845 kva=1.0 irradiance=1.0 
~ temperature=25 %cutin=0.1 %cutout=0.1 effcurve=Myeff P-TCurve=MyPvsT Daily=PVIrrad_diaria TDaily=MyTemp 

New "PVsystem.GD.CE.000.394.098" phases=1 bus1=160987160.2.4 conn=Wye kv=0.219 pf=0.92 pmpp=1.037 kva=2.0 irradiance=1.0 
~ temperature=25 %cutin=0.1 %cutout=0.1 effcurve=Myeff P-TCurve=MyPvsT Daily=PVIrrad_diaria TDaily=MyTemp 

New "PVsystem.GD.CE.000.640.500" phases=3 bus1=296945691.1.2.3.4 conn=Wye kv=0.38 pf=0.92 pmpp=0.418 kva=1.0 irradiance=1.0 
~ temperature=25 %cutin=0.1 %cutout=0.1 effcurve=Myeff P-TCurve=MyPvsT Daily=PVIrrad_diaria TDaily=MyTemp 

New "PVsystem.GD.CE.000.393.875" phases=1 bus1=297159162.2.4 conn=Wye kv=0.219 pf=0.92 pmpp=0.571 kva=1.0 irradiance=1.0 
~ temperature=25 %cutin=0.1 %cutout=0.1 effcurve=Myeff P-TCurve=MyPvsT Daily=PVIrrad_diaria TDaily=MyTemp 

New "PVsystem.GD.CE.000.697.357" phases=3 bus1=176315841.1.2.3.4 conn=Wye kv=0.38 pf=0.92 pmpp=1.121 kva=2.0 irradiance=1.0 
~ temperature=25 %cutin=0.1 %cutout=0.1 effcurve=Myeff P-TCurve=MyPvsT Daily=PVIrrad_diaria TDaily=MyTemp 

New "PVsystem.GD.CE.000.610.356" phases=1 bus1=299116299.2.4 conn=Wye kv=0.219 pf=0.92 pmpp=0.344 kva=1.0 irradiance=1.0 
~ temperature=25 %cutin=0.1 %cutout=0.1 effcurve=Myeff P-TCurve=MyPvsT Daily=PVIrrad_diaria TDaily=MyTemp 

New "PVsystem.GD.CE.000.590.572" phases=3 bus1=299116314.1.2.3.4 conn=Wye kv=0.38 pf=0.92 pmpp=3.308 kva=4.0 irradiance=1.0 
~ temperature=25 %cutin=0.1 %cutout=0.1 effcurve=Myeff P-TCurve=MyPvsT Daily=PVIrrad_diaria TDaily=MyTemp 

New "PVsystem.GD.CE.000.697.028" phases=3 bus1=281146719.1.2.3.4 conn=Wye kv=0.38 pf=0.92 pmpp=2.394 kva=3.0 irradiance=1.0 
~ temperature=25 %cutin=0.1 %cutout=0.1 effcurve=Myeff P-TCurve=MyPvsT Daily=PVIrrad_diaria TDaily=MyTemp 

New "PVsystem.GD.CE.001.503.186" phases=3 bus1=257887958.1.2.3.4 conn=Wye kv=0.38 pf=0.92 pmpp=0.32 kva=1.0 irradiance=1.0 
~ temperature=25 %cutin=0.1 %cutout=0.1 effcurve=Myeff P-TCurve=MyPvsT Daily=PVIrrad_diaria TDaily=MyTemp 

New "PVsystem.GD.CE.000.845.604" phases=3 bus1=298696120.1.2.3.4 conn=Wye kv=0.38 pf=0.92 pmpp=1.078 kva=2.0 irradiance=1.0 
~ temperature=25 %cutin=0.1 %cutout=0.1 effcurve=Myeff P-TCurve=MyPvsT Daily=PVIrrad_diaria TDaily=MyTemp 

New "PVsystem.GD.CE.000.451.674" phases=1 bus1=105335299.2.4 conn=Wye kv=0.219 pf=0.92 pmpp=0.791 kva=1.0 irradiance=1.0 
~ temperature=25 %cutin=0.1 %cutout=0.1 effcurve=Myeff P-TCurve=MyPvsT Daily=PVIrrad_diaria TDaily=MyTemp 

New "PVsystem.GD.CE.000.946.810" phases=1 bus1=101752569.2.4 conn=Wye kv=0.219 pf=0.92 pmpp=1.012 kva=2.0 irradiance=1.0 
~ temperature=25 %cutin=0.1 %cutout=0.1 effcurve=Myeff P-TCurve=MyPvsT Daily=PVIrrad_diaria TDaily=MyTemp 

New "PVsystem.GD.CE.000.270.287" phases=1 bus1=212725864.2.4 conn=Wye kv=0.219 pf=0.92 pmpp=1.578 kva=2.0 irradiance=1.0 
~ temperature=25 %cutin=0.1 %cutout=0.1 effcurve=Myeff P-TCurve=MyPvsT Daily=PVIrrad_diaria TDaily=MyTemp 

New "PVsystem.GD.CE.001.131.803" phases=1 bus1=289772693.2.4 conn=Wye kv=0.219 pf=0.92 pmpp=0.717 kva=1.0 irradiance=1.0 
~ temperature=25 %cutin=0.1 %cutout=0.1 effcurve=Myeff P-TCurve=MyPvsT Daily=PVIrrad_diaria TDaily=MyTemp 

New "PVsystem.GD.CE.001.414.090" phases=1 bus1=147285631.2.4 conn=Wye kv=0.219 pf=0.92 pmpp=0.376 kva=1.0 irradiance=1.0 
~ temperature=25 %cutin=0.1 %cutout=0.1 effcurve=Myeff P-TCurve=MyPvsT Daily=PVIrrad_diaria TDaily=MyTemp 

New "PVsystem.GD.MG.000.418.590" phases=3 bus1=152091161.1.2.3.4 conn=Wye kv=0.38 pf=0.92 pmpp=1.287 kva=2.0 irradiance=1.0 
~ temperature=25 %cutin=0.1 %cutout=0.1 effcurve=Myeff P-TCurve=MyPvsT Daily=PVIrrad_diaria TDaily=MyTemp 

New "PVsystem.GD.CE.000.535.112" phases=1 bus1=277101707.2.4 conn=Wye kv=0.219 pf=0.92 pmpp=1.202 kva=2.0 irradiance=1.0 
~ temperature=25 %cutin=0.1 %cutout=0.1 effcurve=Myeff P-TCurve=MyPvsT Daily=PVIrrad_diaria TDaily=MyTemp 

New "PVsystem.GD.CE.001.388.996" phases=1 bus1=177897051.2.4 conn=Wye kv=0.219 pf=0.92 pmpp=0.588 kva=1.0 irradiance=1.0 
~ temperature=25 %cutin=0.1 %cutout=0.1 effcurve=Myeff P-TCurve=MyPvsT Daily=PVIrrad_diaria TDaily=MyTemp 

New "PVsystem.GD.CE.000.968.733" phases=3 bus1=224599202.1.2.3.4 conn=Wye kv=0.38 pf=0.92 pmpp=3.15 kva=4.0 irradiance=1.0 
~ temperature=25 %cutin=0.1 %cutout=0.1 effcurve=Myeff P-TCurve=MyPvsT Daily=PVIrrad_diaria TDaily=MyTemp 

New "PVsystem.GD.CE.000.590.860" phases=3 bus1=299559306.1.2.3.4 conn=Wye kv=0.38 pf=0.92 pmpp=0.159 kva=1.0 irradiance=1.0 
~ temperature=25 %cutin=0.1 %cutout=0.1 effcurve=Myeff P-TCurve=MyPvsT Daily=PVIrrad_diaria TDaily=MyTemp 

New "PVsystem.GD.CE.000.648.881" phases=3 bus1=299561346.1.2.3.4 conn=Wye kv=0.38 pf=0.92 pmpp=1.813 kva=2.0 irradiance=1.0 
~ temperature=25 %cutin=0.1 %cutout=0.1 effcurve=Myeff P-TCurve=MyPvsT Daily=PVIrrad_diaria TDaily=MyTemp 

New "PVsystem.GD.CE.000.447.318" phases=3 bus1=111447727.1.2.3.4 conn=Wye kv=0.38 pf=0.92 pmpp=0.159 kva=1.0 irradiance=1.0 
~ temperature=25 %cutin=0.1 %cutout=0.1 effcurve=Myeff P-TCurve=MyPvsT Daily=PVIrrad_diaria TDaily=MyTemp 

New "PVsystem.GD.CE.000.534.680" phases=3 bus1=211886376.1.2.3.4 conn=Wye kv=0.38 pf=0.92 pmpp=1.928 kva=2.0 irradiance=1.0 
~ temperature=25 %cutin=0.1 %cutout=0.1 effcurve=Myeff P-TCurve=MyPvsT Daily=PVIrrad_diaria TDaily=MyTemp 

New "PVsystem.GD.CE.000.670.248" phases=3 bus1=299237865.1.2.3.4 conn=Wye kv=0.38 pf=0.92 pmpp=0.421 kva=1.0 irradiance=1.0 
~ temperature=25 %cutin=0.1 %cutout=0.1 effcurve=Myeff P-TCurve=MyPvsT Daily=PVIrrad_diaria TDaily=MyTemp 

New "PVsystem.GD.CE.000.774.237" phases=3 bus1=212559471.1.2.3.4 conn=Wye kv=0.38 pf=0.92 pmpp=1.861 kva=2.0 irradiance=1.0 
~ temperature=25 %cutin=0.1 %cutout=0.1 effcurve=Myeff P-TCurve=MyPvsT Daily=PVIrrad_diaria TDaily=MyTemp 

New "PVsystem.GD.CE.000.845.875" phases=3 bus1=300984896.1.2.3.4 conn=Wye kv=0.38 pf=0.92 pmpp=0.875 kva=1.0 irradiance=1.0 
~ temperature=25 %cutin=0.1 %cutout=0.1 effcurve=Myeff P-TCurve=MyPvsT Daily=PVIrrad_diaria TDaily=MyTemp 

New "PVsystem.GD.CE.000.703.051" phases=3 bus1=146209963.1.2.3.4 conn=Wye kv=0.38 pf=0.92 pmpp=6.527 kva=7.0 irradiance=1.0 
~ temperature=25 %cutin=0.1 %cutout=0.1 effcurve=Myeff P-TCurve=MyPvsT Daily=PVIrrad_diaria TDaily=MyTemp 

New "PVsystem.GD.CE.001.503.236" phases=3 bus1=304202804.1.2.3.4 conn=Wye kv=0.38 pf=0.92 pmpp=1.476 kva=2.0 irradiance=1.0 
~ temperature=25 %cutin=0.1 %cutout=0.1 effcurve=Myeff P-TCurve=MyPvsT Daily=PVIrrad_diaria TDaily=MyTemp 

New "PVsystem.GD.CE.000.468.534" phases=3 bus1=111831596.1.2.3.4 conn=Wye kv=0.38 pf=0.92 pmpp=0.908 kva=1.0 irradiance=1.0 
~ temperature=25 %cutin=0.1 %cutout=0.1 effcurve=Myeff P-TCurve=MyPvsT Daily=PVIrrad_diaria TDaily=MyTemp 

New "PVsystem.GD.CE.000.607.315" phases=2 bus1=113583750.2.3.4 conn=Wye kv=0.38 pf=0.92 pmpp=2.94 kva=3.0 irradiance=1.0 
~ temperature=25 %cutin=0.1 %cutout=0.1 effcurve=Myeff P-TCurve=MyPvsT Daily=PVIrrad_diaria TDaily=MyTemp 

New "PVsystem.GD.CE.000.497.577" phases=3 bus1=154118669.1.2.3.4 conn=Wye kv=0.38 pf=0.92 pmpp=1.497 kva=2.0 irradiance=1.0 
~ temperature=25 %cutin=0.1 %cutout=0.1 effcurve=Myeff P-TCurve=MyPvsT Daily=PVIrrad_diaria TDaily=MyTemp 

New "PVsystem.GD.CE.001.131.460" phases=3 bus1=302586872.1.2.3.4 conn=Wye kv=0.38 pf=0.92 pmpp=1.314 kva=2.0 irradiance=1.0 
~ temperature=25 %cutin=0.1 %cutout=0.1 effcurve=Myeff P-TCurve=MyPvsT Daily=PVIrrad_diaria TDaily=MyTemp 

New "PVsystem.GD.CE.000.842.782" phases=1 bus1=111310102.2.4 conn=Wye kv=0.219 pf=0.92 pmpp=1.284 kva=2.0 irradiance=1.0 
~ temperature=25 %cutin=0.1 %cutout=0.1 effcurve=Myeff P-TCurve=MyPvsT Daily=PVIrrad_diaria TDaily=MyTemp 

New "PVsystem.GD.CE.000.688.781" phases=3 bus1=302588042.1.2.3.4 conn=Wye kv=0.38 pf=0.92 pmpp=0.165 kva=1.0 irradiance=1.0 
~ temperature=25 %cutin=0.1 %cutout=0.1 effcurve=Myeff P-TCurve=MyPvsT Daily=PVIrrad_diaria TDaily=MyTemp 

...